!-Generator IDFEditor 1.48
!-Option SortedOrder UseSpecialFormat
!-NOTE: All comments with '!-' are ignored by the IDFEditor and are generated automatically.
!-      Use '!' comments if they need to be retained when using the IDFEditor.
!-   ===========  ALL OBJECTS IN CLASS: VERSION ===========
! Varlist contains a list of variables used
! Simple glazing system considered

  Version,8.9;

!-   ===========  ALL OBJECTS IN CLASS: SIMULATIONCONTROL ===========

  SimulationControl,
    Yes,                     !- Do Zone Sizing Calculation
    Yes,                     !- Do System Sizing Calculation
    Yes,                     !- Do Plant Sizing Calculation
    No,                      !- Run Simulation for Sizing Periods
    Yes;                     !- Run Simulation for Weather File Run Periods

!-   ===========  ALL OBJECTS IN CLASS: BUILDING ===========

  Building,
    SF_SB_Pasco_HP_crawlspace_sorted,  !- Name
    0,                       !- North Axis {deg}
    Suburbs,                 !- Terrain
    0.04,                    !- Loads Convergence Tolerance Value
    0.4,                     !- Temperature Convergence Tolerance Value {deltaC}
    FullExterior,            !- Solar Distribution
    25,                      !- Maximum Number of Warmup Days
    6;                       !- Minimum Number of Warmup Days

!-   ===========  ALL OBJECTS IN CLASS: SURFACECONVECTIONALGORITHM:INSIDE ===========

  SurfaceConvectionAlgorithm:Inside,TARP;

!-   ===========  ALL OBJECTS IN CLASS: TIMESTEP ===========

  Timestep,60;

!-   ===========  ALL OBJECTS IN CLASS: SITE:LOCATION ===========
! Location and design-day objects created by:
! Site:Location and design-day objects created by:
! /tools/bin/ddy2idf /phome/weather/EnergyPlus/tmy3/usa/zip/USA_WA_Pasco-Tri.Cities.AP.727845_TMY3.ddy
!

  Site:Location,
    Pasco_WA_USA Design_Conditions,  !- Name
    46.27,                   !- Latitude {deg}
    -119.12,                 !- Longitude {deg}
    -8.0,                    !- Time Zone {hr}
    136.00;                  !- Elevation {m}

!-   ===========  ALL OBJECTS IN CLASS: SIZINGPERIOD:DESIGNDAY ===========

  SizingPeriod:DesignDay,
    Pasco Ann Htg 99.6% Condns DB,  !- Name
    12,                      !- Month
    21,                      !- Day of Month
    WinterDesignDay,         !- Day Type
    -14,                     !- Maximum Dry-Bulb Temperature {C}
    0.0,                     !- Daily Dry-Bulb Temperature Range {deltaC}
    ,                        !- Dry-Bulb Temperature Range Modifier Type
    ,                        !- Dry-Bulb Temperature Range Modifier Day Schedule Name
    Wetbulb,                 !- Humidity Condition Type
    -14,                     !- Wetbulb or DewPoint at Maximum Dry-Bulb {C}
    ,                        !- Humidity Condition Day Schedule Name
    ,                        !- Humidity Ratio at Maximum Dry-Bulb {kgWater/kgDryAir}
    ,                        !- Enthalpy at Maximum Dry-Bulb {J/kg}
    ,                        !- Daily Wet-Bulb Temperature Range {deltaC}
    99702.,                  !- Barometric Pressure {Pa}
    2.5,                     !- Wind Speed {m/s}
    310,                     !- Wind Direction {deg}
    No,                      !- Rain Indicator
    No,                      !- Snow Indicator
    No,                      !- Daylight Saving Time Indicator
    ASHRAEClearSky,          !- Solar Model Indicator
    ,                        !- Beam Solar Day Schedule Name
    ,                        !- Diffuse Solar Day Schedule Name
    ,                        !- ASHRAE Clear Sky Optical Depth for Beam Irradiance (taub) {dimensionless}
    ,                        !- ASHRAE Clear Sky Optical Depth for Diffuse Irradiance (taud) {dimensionless}
    0.00;                    !- Sky Clearness

  SizingPeriod:DesignDay,
    Pasco Ann Clg .4% Condns DB=>MWB,  !- Name
    7,                       !- Month
    21,                      !- Day of Month
    SummerDesignDay,         !- Day Type
    37.5,                    !- Maximum Dry-Bulb Temperature {C}
    17.8,                    !- Daily Dry-Bulb Temperature Range {deltaC}
    ,                        !- Dry-Bulb Temperature Range Modifier Type
    ,                        !- Dry-Bulb Temperature Range Modifier Day Schedule Name
    Wetbulb,                 !- Humidity Condition Type
    21.1,                    !- Wetbulb or DewPoint at Maximum Dry-Bulb {C}
    ,                        !- Humidity Condition Day Schedule Name
    ,                        !- Humidity Ratio at Maximum Dry-Bulb {kgWater/kgDryAir}
    ,                        !- Enthalpy at Maximum Dry-Bulb {J/kg}
    ,                        !- Daily Wet-Bulb Temperature Range {deltaC}
    99702.,                  !- Barometric Pressure {Pa}
    3.1,                     !- Wind Speed {m/s}
    330,                     !- Wind Direction {deg}
    No,                      !- Rain Indicator
    No,                      !- Snow Indicator
    No,                      !- Daylight Saving Time Indicator
    ASHRAEClearSky,          !- Solar Model Indicator
    ,                        !- Beam Solar Day Schedule Name
    ,                        !- Diffuse Solar Day Schedule Name
    ,                        !- ASHRAE Clear Sky Optical Depth for Beam Irradiance (taub) {dimensionless}
    ,                        !- ASHRAE Clear Sky Optical Depth for Diffuse Irradiance (taud) {dimensionless}
    1.00;                    !- Sky Clearness

!-   ===========  ALL OBJECTS IN CLASS: RUNPERIOD ===========

  RunPeriod,
    Cooling days,            !- Name
    6,                       !- Begin Month
    18,                      !- Begin Day of Month
    6,                       !- End Month
    20,                      !- End Day of Month
    UseWeatherFile,          !- Day of Week for Start Day
    Yes,                     !- Use Weather File Holidays and Special Days
    Yes,                     !- Use Weather File Daylight Saving Period
    No,                      !- Apply Weekend Holiday Rule
    Yes,                     !- Use Weather File Rain Indicators
    Yes,                     !- Use Weather File Snow Indicators
    1;                       !- Number of Times Runperiod to be Repeated

  RunPeriod,
    Heating days,            !- Name
    9,                       !- Begin Month
    21,                      !- Begin Day of Month
    10,                      !- End Month
    3,                       !- End Day of Month
    UseWeatherFile,          !- Day of Week for Start Day
    Yes,                     !- Use Weather File Holidays and Special Days
    Yes,                     !- Use Weather File Daylight Saving Period
    No,                      !- Apply Weekend Holiday Rule
    Yes,                     !- Use Weather File Rain Indicators
    Yes,                     !- Use Weather File Snow Indicators
    1;                       !- Number of Times Runperiod to be Repeated

!-   ===========  ALL OBJECTS IN CLASS: SITE:WATERMAINSTEMPERATURE ===========
! Weather_file = USA_WA_Pasco-Tri.Cities.AP.727845_TMY3.epw;
! Using the stat2idf and the ddy2idf script...
! Water mains temperature correlation object created by:
! Water mains temperature object created by:
! /phome/resstd/vm/bin/stat2idf /phome/weather/EnergyPlus/tmy3/usa/zip/USA_WA_Pasco-Tri.Cities.AP.727845_TMY3.stat
!

  Site:WaterMainsTemperature,
    Correlation,             !- Calculation Method
    ,                        !- Temperature Schedule Name
    12.0833333333333,        !- Annual Average Outdoor Air Temperature {C}
    22.8;                    !- Maximum Difference In Monthly Average Outdoor Air Temperatures {deltaC}

!-   ===========  ALL OBJECTS IN CLASS: SCHEDULETYPELIMITS ===========

  ScheduleTypeLimits,
    any number;              !- Name

  ScheduleTypeLimits,
    On/Off,                  !- Name
    0,                       !- Lower Limit Value
    1,                       !- Upper Limit Value
    Discrete;                !- Numeric Type

  ScheduleTypeLimits,
    control_type,            !- Name
    0,                       !- Lower Limit Value
    4,                       !- Upper Limit Value
    Discrete;                !- Numeric Type

  ScheduleTypeLimits,
    fraction,                !- Name
    0,                       !- Lower Limit Value
    1,                       !- Upper Limit Value
    Continuous;              !- Numeric Type

  ScheduleTypeLimits,
    Temperature,             !- Name
    -60,                     !- Lower Limit Value
    200,                     !- Upper Limit Value
    Continuous;              !- Numeric Type

!-   ===========  ALL OBJECTS IN CLASS: SCHEDULE:DAY:HOURLY ===========

  Schedule:Day:Hourly,
    S-Lighting-day,          !- Name
    fraction,                !- Schedule Type Limits Name
    0.16,                    !- Hour 1
    0.15,                    !- Hour 2
    0.16,                    !- Hour 3
    0.18,                    !- Hour 4
    0.23,                    !- Hour 5
    0.45,                    !- Hour 6
    0.4,                     !- Hour 7
    0.26,                    !- Hour 8
    0.19,                    !- Hour 9
    0.16,                    !- Hour 10
    0.12,                    !- Hour 11
    0.11,                    !- Hour 12
    0.16,                    !- Hour 13
    0.17,                    !- Hour 14
    0.25,                    !- Hour 15
    0.27,                    !- Hour 16
    0.34,                    !- Hour 17
    0.55,                    !- Hour 18
    0.55,                    !- Hour 19
    0.88,                    !- Hour 20
    1,                       !- Hour 21
    0.86,                    !- Hour 22
    0.51,                    !- Hour 23
    0.28;                    !- Hour 24

!
! *** Occupancy and Lighting factors taken from NREL's benchmark model ***
!

  Schedule:Day:Hourly,
    OccupancyDay,            !- Name
    fraction,                !- Schedule Type Limits Name
    0.060518789,             !- Hour 1
    0.060518789,             !- Hour 2
    0.060518789,             !- Hour 3
    0.060518789,             !- Hour 4
    0.060518789,             !- Hour 5
    0.060518789,             !- Hour 6
    0.060518789,             !- Hour 7
    0.053443894,             !- Hour 8
    0.024728556,             !- Hour 9
    0.014638756,             !- Hour 10
    0.014638756,             !- Hour 11
    0.014638756,             !- Hour 12
    0.014638756,             !- Hour 13
    0.014638756,             !- Hour 14
    0.014638756,             !- Hour 15
    0.014638756,             !- Hour 16
    0.017852055,             !- Hour 17
    0.033472693,             !- Hour 18
    0.054281208,             !- Hour 19
    0.054281208,             !- Hour 20
    0.054281208,             !- Hour 21
    0.060518789,             !- Hour 22
    0.060518789,             !- Hour 23
    0.060518789;             !- Hour 24

  Schedule:Day:Hourly,
    LightingProfileDay,      !- Name
    fraction,                !- Schedule Type Limits Name
    0.008,                   !- Hour 1
    0.008,                   !- Hour 2
    0.008,                   !- Hour 3
    0.008,                   !- Hour 4
    0.024,                   !- Hour 5
    0.05,                    !- Hour 6
    0.056,                   !- Hour 7
    0.05,                    !- Hour 8
    0.022,                   !- Hour 9
    0.015,                   !- Hour 10
    0.015,                   !- Hour 11
    0.015,                   !- Hour 12
    0.015,                   !- Hour 13
    0.015,                   !- Hour 14
    0.026,                   !- Hour 15
    0.015,                   !- Hour 16
    0.056,                   !- Hour 17
    0.078,                   !- Hour 18
    0.105,                   !- Hour 19
    0.126,                   !- Hour 20
    0.128,                   !- Hour 21
    0.088,                   !- Hour 22
    0.049,                   !- Hour 23
    0.02;                    !- Hour 24

  Schedule:Day:Hourly,
    RefrigeratorDay,         !- Name
    fraction,                !- Schedule Type Limits Name
    0.039761431,             !- Hour 1
    0.038909401,             !- Hour 2
    0.03805737,              !- Hour 3
    0.036921329,             !- Hour 4
    0.036353309,             !- Hour 5
    0.036353309,             !- Hour 6
    0.03777336,              !- Hour 7
    0.039761431,             !- Hour 8
    0.040613462,             !- Hour 9
    0.041181483,             !- Hour 10
    0.039761431,             !- Hour 11
    0.039761431,             !- Hour 12
    0.041749503,             !- Hour 13
    0.041749503,             !- Hour 14
    0.041749503,             !- Hour 15
    0.041181483,             !- Hour 16
    0.044021585,             !- Hour 17
    0.048281738,             !- Hour 18
    0.049701789,             !- Hour 19
    0.048281738,             !- Hour 20
    0.046861687,             !- Hour 21
    0.046009656,             !- Hour 22
    0.044021585,             !- Hour 23
    0.041181483;             !- Hour 24

  Schedule:Day:Hourly,
    CookingRangeDay,         !- Name
    fraction,                !- Schedule Type Limits Name
    0.007072136,             !- Hour 1
    0.007072136,             !- Hour 2
    0.003536068,             !- Hour 3
    0.003536068,             !- Hour 4
    0.007072136,             !- Hour 5
    0.010608204,             !- Hour 6
    0.024752475,             !- Hour 7
    0.042432815,             !- Hour 8
    0.045968883,             !- Hour 9
    0.048090523,             !- Hour 10
    0.042432815,             !- Hour 11
    0.04950495,              !- Hour 12
    0.056577086,             !- Hour 13
    0.045968883,             !- Hour 14
    0.056577086,             !- Hour 15
    0.043847242,             !- Hour 16
    0.091937765,             !- Hour 17
    0.149929279,             !- Hour 18
    0.11669024,              !- Hour 19
    0.060113154,             !- Hour 20
    0.035360679,             !- Hour 21
    0.024752475,             !- Hour 22
    0.015558699,             !- Hour 23
    0.010608204;             !- Hour 24

  Schedule:Day:Hourly,
    Dishwasherday,           !- Name
    fraction,                !- Schedule Type Limits Name
    0.015358362,             !- Hour 1
    0.006825939,             !- Hour 2
    0.005119454,             !- Hour 3
    0.003412969,             !- Hour 4
    0.003412969,             !- Hour 5
    0.010238908,             !- Hour 6
    0.020477816,             !- Hour 7
    0.030716724,             !- Hour 8
    0.058020478,             !- Hour 9
    0.064846416,             !- Hour 10
    0.056313993,             !- Hour 11
    0.04778157,              !- Hour 12
    0.040955631,             !- Hour 13
    0.046075085,             !- Hour 14
    0.035836177,             !- Hour 15
    0.037542662,             !- Hour 16
    0.037542662,             !- Hour 17
    0.049488055,             !- Hour 18
    0.087030717,             !- Hour 19
    0.110921502,             !- Hour 20
    0.090443686,             !- Hour 21
    0.066552901,             !- Hour 22
    0.044368601,             !- Hour 23
    0.030716724;             !- Hour 24

  Schedule:Day:Hourly,
    ClothesWasherday,        !- Name
    fraction,                !- Schedule Type Limits Name
    0.009345794,             !- Hour 1
    0.007476636,             !- Hour 2
    0.003738318,             !- Hour 3
    0.003738318,             !- Hour 4
    0.007476636,             !- Hour 5
    0.011214953,             !- Hour 6
    0.022429907,             !- Hour 7
    0.048598131,             !- Hour 8
    0.072897196,             !- Hour 9
    0.085981308,             !- Hour 10
    0.08411215,              !- Hour 11
    0.074766355,             !- Hour 12
    0.06728972,              !- Hour 13
    0.059813084,             !- Hour 14
    0.048598131,             !- Hour 15
    0.052336449,             !- Hour 16
    0.05046729,              !- Hour 17
    0.048598131,             !- Hour 18
    0.048598131,             !- Hour 19
    0.048598131,             !- Hour 20
    0.048598131,             !- Hour 21
    0.046728972,             !- Hour 22
    0.031775701,             !- Hour 23
    0.01682243;              !- Hour 24

  Schedule:Day:Hourly,
    dhw_profile_day,         !- Name
    fraction,                !- Schedule Type Limits Name
    0.00623053,              !- Hour 1
    0.003115265,             !- Hour 2
    0.000779,                !- Hour 3
    0.000779,                !- Hour 4
    0.003115265,             !- Hour 5
    0.021806854,             !- Hour 6
    0.074766355,             !- Hour 7
    0.079439252,             !- Hour 8
    0.076323988,             !- Hour 9
    0.066978193,             !- Hour 10
    0.060747664,             !- Hour 11
    0.048286604,             !- Hour 12
    0.042056075,             !- Hour 13
    0.037383178,             !- Hour 14
    0.037383178,             !- Hour 15
    0.03271028,              !- Hour 16
    0.043613707,             !- Hour 17
    0.057632399,             !- Hour 18
    0.068535826,             !- Hour 19
    0.065420561,             !- Hour 20
    0.059190031,             !- Hour 21
    0.048286604,             !- Hour 22
    0.042056075,             !- Hour 23
    0.023364486;             !- Hour 24

  Schedule:Day:Hourly,
    ClothesDryerday,         !- Name
    fraction,                !- Schedule Type Limits Name
    0.00990099,              !- Hour 1
    0.005940594,             !- Hour 2
    0.003960396,             !- Hour 3
    0.001980198,             !- Hour 4
    0.003960396,             !- Hour 5
    0.005940594,             !- Hour 6
    0.015841584,             !- Hour 7
    0.031683168,             !- Hour 8
    0.048316832,             !- Hour 9
    0.068118812,             !- Hour 10
    0.078019802,             !- Hour 11
    0.081188119,             !- Hour 12
    0.074059406,             !- Hour 13
    0.067326733,             !- Hour 14
    0.057425743,             !- Hour 15
    0.060594059,             !- Hour 16
    0.055445545,             !- Hour 17
    0.054257426,             !- Hour 18
    0.051485149,             !- Hour 19
    0.050693069,             !- Hour 20
    0.052277228,             !- Hour 21
    0.054257426,             !- Hour 22
    0.043564356,             !- Hour 23
    0.023762376;             !- Hour 24

  Schedule:Day:Hourly,
    Sinksday,                !- Name
    fraction,                !- Schedule Type Limits Name
    0.014164306,             !- Hour 1
    0.006798867,             !- Hour 2
    0.00509915,              !- Hour 3
    0.00509915,              !- Hour 4
    0.006798867,             !- Hour 5
    0.018130312,             !- Hour 6
    0.042492918,             !- Hour 7
    0.062322946,             !- Hour 8
    0.06572238,              !- Hour 9
    0.061756374,             !- Hour 10
    0.054390935,             !- Hour 11
    0.049858357,             !- Hour 12
    0.048725212,             !- Hour 13
    0.045325779,             !- Hour 14
    0.04305949,              !- Hour 15
    0.041359773,             !- Hour 16
    0.04815864,              !- Hour 17
    0.065155807,             !- Hour 18
    0.074787535,             !- Hour 19
    0.069121813,             !- Hour 20
    0.056657224,             !- Hour 21
    0.04815864,              !- Hour 22
    0.039660057,             !- Hour 23
    0.027195467;             !- Hour 24

  Schedule:Day:Hourly,
    Showersday,              !- Name
    fraction,                !- Schedule Type Limits Name
    0.01068999,              !- Hour 1
    0.004859086,             !- Hour 2
    0.003401361,             !- Hour 3
    0.004859086,             !- Hour 4
    0.013605442,             !- Hour 5
    0.051506317,             !- Hour 6
    0.117589893,             !- Hour 7
    0.116618076,             !- Hour 8
    0.094752187,             !- Hour 9
    0.074344023,             !- Hour 10
    0.059766764,             !- Hour 11
    0.047133139,             !- Hour 12
    0.034013605,             !- Hour 13
    0.029154519,             !- Hour 14
    0.026239067,             !- Hour 15
    0.02526725,              !- Hour 16
    0.030126336,             !- Hour 17
    0.038872692,             !- Hour 18
    0.042274052,             !- Hour 19
    0.042274052,             !- Hour 20
    0.041788144,             !- Hour 21
    0.040816327,             !- Hour 22
    0.029154519,             !- Hour 23
    0.020894072;             !- Hour 24

  Schedule:Day:Hourly,
    Bathsday,                !- Name
    fraction,                !- Schedule Type Limits Name
    0.007722008,             !- Hour 1
    0.003861004,             !- Hour 2
    0.003861004,             !- Hour 3
    0.003861004,             !- Hour 4
    0.007722008,             !- Hour 5
    0.019305019,             !- Hour 6
    0.046332046,             !- Hour 7
    0.057915058,             !- Hour 8
    0.065637066,             !- Hour 9
    0.057915058,             !- Hour 10
    0.046332046,             !- Hour 11
    0.034749035,             !- Hour 12
    0.030888031,             !- Hour 13
    0.023166023,             !- Hour 14
    0.023166023,             !- Hour 15
    0.023166023,             !- Hour 16
    0.038610039,             !- Hour 17
    0.046332046,             !- Hour 18
    0.077220077,             !- Hour 19
    0.1003861,               !- Hour 20
    0.1003861,               !- Hour 21
    0.077220077,             !- Hour 22
    0.065637066,             !- Hour 23
    0.038610039;             !- Hour 24

  Schedule:Day:Hourly,
    MELSDay,                 !- Name
    fraction,                !- Schedule Type Limits Name
    0.037,                   !- Hour 1
    0.035,                   !- Hour 2
    0.034,                   !- Hour 3
    0.034,                   !- Hour 4
    0.032,                   !- Hour 5
    0.036,                   !- Hour 6
    0.042,                   !- Hour 7
    0.044,                   !- Hour 8
    0.037,                   !- Hour 9
    0.032,                   !- Hour 10
    0.033,                   !- Hour 11
    0.033,                   !- Hour 12
    0.032,                   !- Hour 13
    0.033,                   !- Hour 14
    0.037,                   !- Hour 15
    0.035,                   !- Hour 16
    0.044,                   !- Hour 17
    0.053,                   !- Hour 18
    0.058,                   !- Hour 19
    0.06,                    !- Hour 20
    0.062,                   !- Hour 21
    0.06,                    !- Hour 22
    0.052,                   !- Hour 23
    0.045;                   !- Hour 24

!-   ===========  ALL OBJECTS IN CLASS: SCHEDULE:WEEK:COMPACT ===========

  Schedule:Week:Compact,
    RefrigeratorWeek,        !- Name
    AllDays,                 !- DayType List 1
    RefrigeratorDay;         !- Schedule:Day Name 1

  Schedule:Week:Compact,
    CookingRangeWeek,        !- Name
    AllDays,                 !- DayType List 1
    CookingRangeDay;         !- Schedule:Day Name 1

  Schedule:Week:Compact,
    DishwasherWeek,          !- Name
    AllDays,                 !- DayType List 1
    Dishwasherday;           !- Schedule:Day Name 1

  Schedule:Week:Compact,
    ClothesWasherWeek,       !- Name
    AllDays,                 !- DayType List 1
    ClothesWasherday;        !- Schedule:Day Name 1

  Schedule:Week:Compact,
    dhw_profile_week,        !- Name
    AllDays,                 !- DayType List 1
    dhw_profile_day;         !- Schedule:Day Name 1

  Schedule:Week:Compact,
    ClothesDryerWeek,        !- Name
    AllDays,                 !- DayType List 1
    ClothesDryerday;         !- Schedule:Day Name 1

  Schedule:Week:Compact,
    SinksWeek,               !- Name
    AllDays,                 !- DayType List 1
    Sinksday;                !- Schedule:Day Name 1

  Schedule:Week:Compact,
    ShowersWeek,             !- Name
    AllDays,                 !- DayType List 1
    Showersday;              !- Schedule:Day Name 1

  Schedule:Week:Compact,
    BathsWeek,               !- Name
    AllDays,                 !- DayType List 1
    Bathsday;                !- Schedule:Day Name 1

  Schedule:Week:Compact,
    OccupancyWeek,           !- Name
    AllDays,                 !- DayType List 1
    OccupancyDay;            !- Schedule:Day Name 1

  Schedule:Week:Compact,
    LightingProfileWeek,     !- Name
    AllDays,                 !- DayType List 1
    LightingProfileDay;      !- Schedule:Day Name 1

  Schedule:Week:Compact,
    MELSWeek,                !- Name
    AllDays,                 !- DayType List 1
    MELSDay;                 !- Schedule:Day Name 1

!-   ===========  ALL OBJECTS IN CLASS: SCHEDULE:YEAR ===========

  Schedule:Year,
    Occupancy,               !- Name
    fraction,                !- Schedule Type Limits Name
    OccupancyWeek,           !- Schedule:Week Name 1
    1,                       !- Start Month 1
    1,                       !- Start Day 1
    12,                      !- End Month 1
    31;                      !- End Day 1

  Schedule:Year,
    LightingProfile,         !- Name
    fraction,                !- Schedule Type Limits Name
    LightingProfileWeek,     !- Schedule:Week Name 1
    1,                       !- Start Month 1
    1,                       !- Start Day 1
    12,                      !- End Month 1
    31;                      !- End Day 1

  Schedule:Year,
    Refrigerator,            !- Name
    fraction,                !- Schedule Type Limits Name
    RefrigeratorWeek,        !- Schedule:Week Name 1
    1,                       !- Start Month 1
    1,                       !- Start Day 1
    12,                      !- End Month 1
    31;                      !- End Day 1

  Schedule:Year,
    CookingRange,            !- Name
    fraction,                !- Schedule Type Limits Name
    CookingRangeWeek,        !- Schedule:Week Name 1
    1,                       !- Start Month 1
    1,                       !- Start Day 1
    12,                      !- End Month 1
    31;                      !- End Day 1

  Schedule:Year,
    dhw_sch,                 !- Name
    fraction,                !- Schedule Type Limits Name
    dhw_profile_week,        !- Schedule:Week Name 1
    1,                       !- Start Month 1
    1,                       !- Start Day 1
    12,                      !- End Month 1
    31;                      !- End Day 1

  Schedule:Year,
    Dishwasher,              !- Name
    fraction,                !- Schedule Type Limits Name
    DishwasherWeek,          !- Schedule:Week Name 1
    1,                       !- Start Month 1
    1,                       !- Start Day 1
    12,                      !- End Month 1
    31;                      !- End Day 1

  Schedule:Year,
    ClothesWasher,           !- Name
    fraction,                !- Schedule Type Limits Name
    ClothesWasherWeek,       !- Schedule:Week Name 1
    1,                       !- Start Month 1
    1,                       !- Start Day 1
    12,                      !- End Month 1
    31;                      !- End Day 1

  Schedule:Year,
    ClothesDryer,            !- Name
    fraction,                !- Schedule Type Limits Name
    ClothesDryerWeek,        !- Schedule:Week Name 1
    1,                       !- Start Month 1
    1,                       !- Start Day 1
    12,                      !- End Month 1
    31;                      !- End Day 1

  Schedule:Year,
    Sinks,                   !- Name
    fraction,                !- Schedule Type Limits Name
    SinksWeek,               !- Schedule:Week Name 1
    1,                       !- Start Month 1
    1,                       !- Start Day 1
    12,                      !- End Month 1
    31;                      !- End Day 1

  Schedule:Year,
    Showers,                 !- Name
    fraction,                !- Schedule Type Limits Name
    ShowersWeek,             !- Schedule:Week Name 1
    1,                       !- Start Month 1
    1,                       !- Start Day 1
    12,                      !- End Month 1
    31;                      !- End Day 1

  Schedule:Year,
    Baths,                   !- Name
    fraction,                !- Schedule Type Limits Name
    BathsWeek,               !- Schedule:Week Name 1
    1,                       !- Start Month 1
    1,                       !- Start Day 1
    12,                      !- End Month 1
    31;                      !- End Day 1

  Schedule:Year,
    Occupancy_sch,           !- Name
    fraction,                !- Schedule Type Limits Name
    OccupancyWeek,           !- Schedule:Week Name 1
    1,                       !- Start Month 1
    1,                       !- Start Day 1
    12,                      !- End Month 1
    31;                      !- End Day 1

!Schedule:Year,
!    Lighting_sch,            !- Name
!    fraction,                !- Schedule Type Limits Name
!    LightingProfileWeek,     !- Schedule:Week Name 1
!    1,                       !- Start Month 1
!    1,                       !- Start Day 1
!    12,                      !- End Month 1
!    31;                      !- End Day 1

  Schedule:Year,
    MELS_sch,                !- Name
    fraction,                !- Schedule Type Limits Name
    MELSWeek,                !- Schedule:Week Name 1
    1,                       !- Start Month 1
    1,                       !- Start Day 1
    12,                      !- End Month 1
    31;                      !- End Day 1

!-   ===========  ALL OBJECTS IN CLASS: SCHEDULE:COMPACT ===========

  Schedule:Compact,
    activity_sch,            !- Name
    any number,              !- Schedule Type Limits Name
    Through: 12/31,          !- Field 1
    For: AllDays,            !- Field 2
    Until: 24:00,117.28;     !- Field 3

  Schedule:Compact,
    inf_sch,                 !- Name